14
Properties=species:S:1:pos:R:3 name=C4H8O2_rxn3652_213 pbc="F F F"
C       -3.03056185      -2.05266068       0.43849734
C       -0.10871854       0.10946072       0.13074309
O        2.84527116       0.00898822      -0.54666050
C        4.24641312       1.65828973       1.09579390
C       -1.53411913       1.98816545      -1.34612367
O       -3.82391533       1.85138222      -1.44762047
H       -4.90304363      -1.27504293       1.08246253
H       -2.36644676      -3.31333481       1.88121043
H       -3.40532907      -2.92635039      -1.39457328
H       -0.16597671       0.47756602       2.13916802
H        3.59576456      -1.90542130      -0.36325511
H        3.19751111       0.62453950      -2.51296785
H        6.03968691       1.35006422       0.82228547
H       -0.59955745       3.47454975      -2.45540879
