16
Properties=species:S:1:pos:R:3 name=C4H9NO2_rxn7545_241 pbc="F F F"
C       -4.77333389       0.34170537       1.63201001
C       -2.50845944      -0.80186770       0.84967919
C       -1.26590251       0.57222297      -1.06483892
O        1.23372004      -0.73657914      -1.57102643
N        2.67846362      -0.89265477       0.77010309
C        5.12170166      -0.44565875       1.18081688
O        6.20262906       0.18577358      -1.05936840
H       -4.44122235       2.24484502       2.40446886
H       -6.12778544       0.49783446       0.06091904
H       -5.58607291      -0.85193807       3.10694625
H       -0.93305266       2.53366479      -0.44514650
H       -2.42240895       0.62893206      -2.79692511
H        2.33601445       0.30731491      -2.96751911
H        0.87611220      -2.63938192      -2.31115881
H        1.64992771      -1.39739623       2.29683085
H        7.94701537       0.52283853      -0.66666528
